 # System name
 # Mg2SiSn
 CRYSTAL
 PRIMVEC
     6.39099789     0.00000000     0.00000000
     0.00000000     6.39099789     0.00000000
     0.00000000     0.00000000     6.39099789
 PRIMCOORD
          12 1
Mg     1.59774947     1.59774947     1.59774947
Mg     1.59774947     4.79324818     4.79324818
Mg     4.79324818     1.59774947     4.79324818
Mg     4.79324818     4.79324818     1.59774947
Mg     4.79324818     4.79324818     4.79324818
Mg     4.79324818     1.59774947     1.59774947
Mg     1.59774947     4.79324818     1.59774947
Mg     1.59774947     1.59774947     4.79324818
Sn     0.00000000     0.00000000     0.00000000
Sn     3.19549894     0.00000000     3.19549894
Sn     3.19549894     3.19549894     0.00000000
Si     0.00000000     3.19549894     3.19549894
